Circuit: * C:\Users\Gonzalez\Desktop\Practica2 Abel\Capacitor.asc


Date: Thu Nov 16 23:15:36 2017
Total elapsed time: 0.046 seconds.

tnom = 27
temp = 27
method = trap
totiter = 0
traniter = 0
tranpoints = 0
accept = 0
rejected = 0
matrix size = 4
fillins = 1
solver = Normal

